data/AfterDynamicSim_sps_216.m
function mpc = AfterDynamicSim_sps_216
%AFTERDYNAMICSIM_SPS_216

%% MATPOWER Case Format : Version 2
mpc.version = '2';

%%-----  Power Flow Data  -----%%
%% system MVA base
mpc.baseMVA = 100;

%% bus data
%	bus_i	type	Pd	Qd	Gs	Bs	area	Vm	Va	baseKV	zone	Vmax	Vmin
mpc.bus = [
	1	1	89.3145062	48.6124596	0	0	1	1.02176	-92.2941	115	1	1.1	0.9;
	2	1	55.5118999	14.8654398	0	0	1	1.02806	-90.684	115	1	1.1	0.9;
	3	1	19.6228288	0	0	0	1	0.9814	-91.7197	230	1	1.1	0.9;
	4	1	0	0	0	0	1	1.00834	-94.1329	345	1	1.1	0.9;
	5	1	349.966385	128.845655	0	0	1	1.01166	-93.5816	115	1	1.1	0.9;
	6	1	118.800129	40.5785734	0	0	1	1.02272	-91.4009	115	1	1.1	0.9;
	7	1	0	0	0	0	1	0.97999	-92.0866	230	1	1.1	0.9;
	8	1	57.0638243	13.7695536	0	0	1	1.0029	-96.3538	115	1	1.1	0.9;
	9	1	95.2883061	42.6693495	0	0	1	0.99717	-95.5212	115	1	1.1	0.9;
	10	1	146.503556	32.6572752	0	0	1	1.01184	-97.0557	230	1	1.1	0.9;
	11	1	82.4865963	20.8633716	0	0	1	1.00062	-96.0048	115	1	1.1	0.9;
	12	1	0	0	0	0	1	0.98697	-93.1157	230	1	1.1	0.9;
	13	1	57.530511	9.91580161	0	0	1	0.99101	-99.0292	115	1	1.1	0.9;
	14	1	154.614826	57.9651286	0	0	1	0.97477	-104.3918	115	1	1.1	0.9;
	15	1	120.781429	21.9198849	0	0	1	1.00018	-109.0502	115	1	1.1	0.9;
	16	1	0	0	0	0	1	0.98795	-103.4522	345	1	1.1	0.9;
	17	1	539.879874	211.656758	0	0	1	1.03658	-113.4686	115	1	1.1	0.9;
	19	1	0	0	0	0	1	0.97044	-97.7233	230	1	1.1	0.9;
	20	1	589.098267	118.775043	0	0	1	0.99271	-100.9521	115	1	1.1	0.9;
	21	1	76.1411598	0.989414467	0	0	1	0.96612	-96.8794	230	1	1.1	0.9;
	22	1	80.3323827	22.8032596	0	0	1	0.98939	-100.4263	115	1	1.1	0.9;
	23	1	20.952979	6.98214611	0	0	1	1.0481	-94.3925	115	1	1.1	0.9;
	24	1	0	0	0	0	1	1.00178	-92.3016	230	1	1.1	0.9;
	25	1	44.8613674	11.9600532	0	0	1	1.02069	-96.9039	115	1	1.1	0.9;
	26	1	27.8722232	8.95574857	0	0	1	0.99473	-100.1038	115	1	1.1	0.9;
	27	1	68.5318418	12.9085377	0	0	1	0.96943	-103.3268	115	1	1.1	0.9;
	33	1	50.3519712	5.49146893	0	0	1	0.96609	-115.2374	115	1	1.1	0.9;
	34	1	0	0	0	0	1	0.97894	-111.4669	345	1	1.1	0.9;
	35	1	0	0	0	0	1	0.94367	-138.5445	115	1	1.1	0.9;
	36	1	0	0	0	0	1	0.94291	-135.6547	230	1	1.1	0.9;
	37	1	78.3937459	29.5041132	0	0	1	0.96634	-113.8538	115	1	1.1	0.9;
	38	1	141.879683	16.4714586	0	0	1	0.96208	-115.7963	115	1	1.1	0.9;
	39	1	0	0	0	0	1	0.99283	-109.1458	345	1	1.1	0.9;
	40	1	42.3451011	-19.3365593	0	0	1	0.96685	-115.8845	115	1	1.1	0.9;
	41	1	78.4659736	0	0	0	1	0.96817	-113.4947	115	1	1.1	0.9;
	42	1	0	0	0	0	1	0.98171	-111.0087	345	1	1.1	0.9;
	43	1	35.4195919	8.17146317	0	0	1	0.94073	-121.6376	115	1	1.1	0.9;
	44	1	175.131043	26.0380031	0	0	1	0.94318	-123.8943	115	1	1.1	0.9;
	45	1	0	0	0	0	1	0.95273	-121.5491	230	1	1.1	0.9;
	46	1	0	0	0	0	1	0.95706	-118.0622	345	1	1.1	0.9;
	47	1	52.6270868	10.7045521	0	0	1	0.92537	-131.34	115	1	1.1	0.9;
	48	1	38.8751108	18.0110628	0	0	1	0.96764	-119.5337	115	1	1.1	0.9;
	49	1	82.4574895	23.2969651	0	0	1	0.97336	-103.8644	115	1	1.1	0.9;
	51	1	-4.52615309	4.52523285	0	0	1	0.95929	-110.4649	115	1	1.1	0.9;
	52	1	55.6227979	25.5245055	0	0	1	0.93909	-114.8759	115	1	1.1	0.9;
	53	1	62.5861756	2.7199697	0	0	1	0.9358	-122.5398	115	1	1.1	0.9;
	54	1	9.05857701	0.906491932	0	0	1	0.94388	-121.2652	115	1	1.1	0.9;
	55	1	20.2205198	9.18896888	0	0	1	0.96109	-115.6503	115	1	1.1	0.9;
	57	1	93.7977722	19.1372979	0	0	1	1.0042	-110.5199	115	1	1.1	0.9;
	58	1	13.5772357	0.969122444	0	0	1	0.97152	-108.6303	115	1	1.1	0.9;
	59	1	212.222924	103.160962	0	0	1	0.96133	-107.9373	115	1	1.1	0.9;
	60	1	0	0	0	0	1	0.9681	-114.7864	230	1	1.1	0.9;
	61	1	221.406129	107.259015	0	0	1	0.97431	-106.0995	115	1	1.1	0.9;
	62	1	0	0	0	0	1	0.98889	-104.2118	230	1	1.1	0.9;
	63	1	67.0664482	28.7351971	0	0	1	0.93125	-120.8102	115	1	1.1	0.9;
	64	1	0	0	0	0	1	0.92149	-116.1299	230	1	1.1	0.9;
	69	1	0	0	0	0	1	0.97082	-141.1517	115	1	1.1	0.9;
	70	1	53.5939741	19.1345231	0	0	1	0.99157	-147.6935	115	1	1.1	0.9;
	71	1	111.096905	36.3833524	0	150.09	1	1.01603	-143.0046	115	1	1.1	0.9;
	72	1	53.7053016	17.896305	0	0	1	0.95537	-140.4244	115	1	1.1	0.9;
	73	1	205.797582	65.2116341	0	0	1	0.94155	-137.5958	115	1	1.1	0.9;
	74	1	0	0	0	0	1	0.93668	-133.4673	230	1	1.1	0.9;
	76	1	194.05677	99.7994246	0	0	1	0.9312	-139.2141	115	1	1.1	0.9;
	77	1	70.0693964	26.5054685	0	0	1	0.9606	-138.0293	115	1	1.1	0.9;
	78	1	0	0	0	0	1	0.96953	-137.1019	115	1	1.1	0.9;
	79	1	45.2367734	13.1907401	0	0	1	0.9594	-138.0675	115	1	1.1	0.9;
	80	1	26.5107232	6.62606334	0	0	1	0.96139	-139.5442	115	1	1.1	0.9;
	81	1	0	0	0	0	1	0.94196	-133.0516	345	1	1.1	0.9;
	84	1	36.9495797	12.9778417	0	0	1	1.02396	-129.8952	115	1	1.1	0.9;
	85	1	0	0	0	0	1	0.97906	-120.5655	230	1	1.1	0.9;
	86	1	0	0	0	0	1	0.98226	-116.3272	230	1	1.1	0.9;
	87	1	0	0	0	0	1	0.97944	-108.4257	230	1	1.1	0.9;
	88	1	0	0	0	0	1	0.94173	-133.9576	230	1	1.1	0.9;
	89	1	42.7436244	0	0	0	1	1.0084	-112.8975	115	1	1.1	0.9;
	90	1	63.03133	0	0	0	1	0.99588	-113.6143	115	1	1.1	0.9;
	91	1	17.316183	0	0	0	1	1.04858	-111.3713	115	1	1.1	0.9;
	92	1	15.7895659	0	0	0	1	1.05148	-108.9236	115	1	1.1	0.9;
	94	1	59.5567232	0	0	0	1	0.98383	-110.3474	115	1	1.1	0.9;
	97	1	39.6508109	0	0	0	1	1.01386	-115.4627	115	1	1.1	0.9;
	98	1	66.7200116	0	0	0	1	1.00021	-116.9341	115	1	1.1	0.9;
	99	1	82.7890272	0	0	0	1	0.98384	-123.6918	115	1	1.1	0.9;
	100	1	0	0	0	0	1	1.00284	-116.728	115	1	1.1	0.9;
	102	1	77.3224143	0	0	0	1	0.99644	-117.5212	115	1	1.1	0.9;
	103	1	31.6990785	0	0	0	1	1.0224	-114.7928	115	1	1.1	0.9;
	104	1	8.53690913	0	0	0	1	0.99073	-119.9962	115	1	1.1	0.9;
	105	1	48.8807662	0	0	0	1	1.01268	-115.9134	115	1	1.1	0.9;
	107	1	4.46300721	0	0	0	1	0.9898	-119.3557	115	1	1.1	0.9;
	108	1	111.344648	0	0	0	1	0.98553	-123.6819	115	1	1.1	0.9;
	109	1	29.5687782	0	0	0	1	0.95579	-131.9353	115	1	1.1	0.9;
	110	1	61.3642733	0	0	0	1	0.95923	-129.5766	115	1	1.1	0.9;
	112	1	19.0121702	0	0	0	1	0.9617	-136.7886	115	1	1.1	0.9;
	113	1	24.2053601	0	0	0	1	0.9281	-132.8804	115	1	1.1	0.9;
	114	1	17.6557896	0	0	0	1	0.9644	-137.027	115	1	1.1	0.9;
	115	1	0	0	0	0	2	0.92482	-84.9048	115	2	1.1	0.9;
	116	1	0	0	0	0	2	1.0108	-77.8966	115	2	1.1	0.9;
	117	1	0	0	0	500.29	2	0.94474	-72.7629	115	2	1.1	0.9;
	118	1	13.9843299	644.494586	0	0	2	0.93788	-71.6948	115	2	1.1	0.9;
	119	1	100.253231	34.3738433	0	0	2	1.04219	-56.8959	115	2	1.1	0.9;
	120	1	-99.677023	40.0581849	0	150.09	2	1.03806	-59.6355	115	2	1.1	0.9;
	121	1	530.829708	54.5555555	0	0	2	0.92063	-81.2022	115	2	1.1	0.9;
	122	1	226.746616	11.6754967	0	0	2	0.9225	-87.5786	115	2	1.1	0.9;
	123	1	77.1070802	1.38371476	0	0	2	0.94653	-92.3192	115	2	1.1	0.9;
	124	1	273.87375	58.7408182	0	0	2	0.99135	-81.1321	115	2	1.1	0.9;
	125	1	509.641686	81.8480023	0	0	2	0.9661	-102.8999	115	2	1.1	0.9;
	126	1	57.3586635	5.05057557	0	200.12	2	0.96396	-98.5962	115	2	1.1	0.9;
	127	1	379.091391	36.8237423	0	0	2	0.98842	-104.0142	230	2	1.1	0.9;
	128	1	0	0	0	0	2	0.99445	-102.4046	230	2	1.1	0.9;
	129	1	0	0	0	0	2	0.99162	-101.5781	230	2	1.1	0.9;
	130	1	0	0	0	0	2	1.00799	-91.8022	230	2	1.1	0.9;
	131	1	0	0	0	0	2	0.97398	-91.9709	230	2	1.1	0.9;
	132	1	0	0	0	0	2	0.99117	-93.4318	230	2	1.1	0.9;
	133	1	0	0	0	0	2	0.99455	-104.532	230	2	1.1	0.9;
	134	1	0	0	0	0	2	1.01825	-103.1167	230	2	1.1	0.9;
	135	1	168.819538	41.4953456	0	0	2	1.0197	-103.2373	230	2	1.1	0.9;
	136	1	55.1346553	18.1723552	0	0	2	1.0498	-97.9046	230	2	1.1	0.9;
	137	1	273.489956	99.73171	0	0	2	1.04344	-104.3474	230	2	1.1	0.9;
	138	1	826.711589	135.163711	0	0	2	1.05204	-113.7203	230	2	1.1	0.9;
	139	1	594.872951	83.2581155	0	0	2	1.01055	-106.2511	115	2	1.1	0.9;
	140	1	387.656216	114.654377	0	0	2	1.04088	-106.2166	230	2	1.1	0.9;
	141	1	144.987756	57.9785266	0	0	2	1.05087	-102.5259	230	2	1.1	0.9;
	142	1	56.545636	24.5125704	0	0	2	1.01875	-105.3888	230	2	1.1	0.9;
	143	1	89.4998564	35.4906777	0	0	2	1.04351	-98.5969	230	2	1.1	0.9;
	144	1	0	0	0	0	2	0.9911	-103.7779	230	2	1.1	0.9;
	145	1	24.0006188	13.9956724	0	0	2	1.01184	-102.6174	230	2	1.1	0.9;
	146	1	0	0	0	0	2	1.05281	-98.1391	230	2	1.1	0.9;
	147	1	0	0	0	0	2	1.05279	-94.0564	230	2	1.1	0.9;
	148	1	62.9925015	24.9902017	0	120.07	2	1.09815	-102.4329	115	2	1.1	0.9;
	149	1	0	0	0	0	2	1.07335	-97.2651	230	2	1.1	0.9;
	150	1	0	0	0	0	2	0.97352	-91.7033	230	2	1.1	0.9;
	151	1	0	0	0	0	2	0.99273	-93.1007	230	2	1.1	0.9;
	152	1	16.999215	8.99708687	0	0	2	1.05704	-90.5279	230	2	1.1	0.9;
	153	1	0	0	0	0	2	1.0473	-90.3443	230	2	1.1	0.9;
	154	1	70.431656	5.02971249	0	84.55	2	1.0744	-104.4521	115	2	1.1	0.9;
	155	1	200.88852	50.2075059	0	0	2	1.02185	-94.7301	230	2	1.1	0.9;
	156	1	75.6051465	50.3893369	0	0	2	0.97	-96.2693	115	2	1.1	0.9;
	157	1	122.174292	-24.045858	0	0	2	0.92394	-86.0506	230	2	1.1	0.9;
	158	1	0	0	0	0	2	0.94039	-86.5683	230	2	1.1	0.9;
	159	1	32.6567422	16.3232342	0	0	2	0.92204	-81.9188	230	2	1.1	0.9;
	160	1	0	0	0	0	2	0.95895	-83.6219	230	2	1.1	0.9;
	161	1	35.1203449	15.0469483	0	0	2	1.03984	-92.184	230	2	1.1	0.9;
	162	1	85.0281748	24.0014145	0	0	2	0.99215	-83.0764	230	2	1.1	0.9;
	163	1	0	0.400197966	0	0	2	1.03893	-99.4895	230	2	1.1	0.9;
	164	1	0	0	0	-211.88	2	0.98549	-92.046	230	2	1.1	0.9;
	165	1	0	0	0	0	2	1.00011	-75.1602	230	2	1.1	0.9;
	166	1	0	0	0	-102.94	2	0.99707	-71.1932	230	2	1.1	0.9;
	167	1	298.855087	95.3380154	0	0	2	0.95885	-104.2798	230	2	1.1	0.9;
	168	1	0	0	0	0	2	0.99448	-102.4281	230	2	1.1	0.9;
	169	1	0	0	0	0	2	0.97509	-103.9876	230	2	1.1	0.9;
	170	1	481.665913	99.9436774	0	0	2	0.91411	-96.8256	115	2	1.1	0.9;
	171	1	761.958107	290.389872	0	0	2	0.97534	-109.0601	115	2	1.1	0.9;
	172	1	26.4882928	0	0	0	2	1.02452	-108.8158	115	2	1.1	0.9;
	173	1	163.524196	42.9941643	0	53.03	2	0.98539	-115.1861	115	2	1.1	0.9;
	174	1	0	0	0	0	2	1.06236	-105.2533	115	2	1.1	0.9;
	175	1	176.070537	83.0091702	0	0	2	0.97878	-109.6933	115	2	1.1	0.9;
	176	1	4.99927361	3.99918654	0	0	2	1.05211	-97.3606	115	2	1.1	0.9;
	177	1	27.9915428	11.9930416	0	0	2	1.00747	-101.4029	115	2	1.1	0.9;
	178	1	427.406599	173.553177	0	0	2	0.95015	-108.7882	115	2	1.1	0.9;
	179	1	74.0428435	29.0071763	0	45.03	2	0.98755	-111.6063	115	2	1.1	0.9;
	180	1	69.5012531	49.286175	0	0	2	0.98558	-105.4544	115	2	1.1	0.9;
	181	1	73.3826235	0	0	0	2	1.04721	-104.8441	230	2	1.1	0.9;
	182	1	240.677764	88.9655925	0	0	2	1.0429	-106.9356	230	2	1.1	0.9;
	183	1	40.1420053	4.0127211	0	0	2	0.99288	-93.9702	115	2	1.1	0.9;
	184	1	136.642614	16.5767742	0	0	2	1.03697	-101.8531	230	2	1.1	0.9;
	185	1	0	0	0	0	2	1.05205	-99.2984	230	2	1.1	0.9;
	186	1	59.7938306	24.2905929	0	0	2	1.06462	-101.0438	230	2	1.1	0.9;
	187	1	59.7937531	24.2911864	0	0	2	1.06454	-102.0643	230	2	1.1	0.9;
	188	1	182.560807	43.5790053	0	0	2	1.04946	-104.1784	230	2	1.1	0.9;
	189	1	6.86049765	1.95957874	0	0	3	0.99377	-141.6295	66	3	1.1	0.9;
	190	1	0	0	0	-149.91	3	0.92592	-169.2729	345	3	1.1	0.9;
	191	1	488.544263	52.9351166	0	0	3	1.04213	-122.5558	230	3	1.1	0.9;
	192	1	764.214693	68.7591174	0	0	3	0.91065	-147.0974	230	3	1.1	0.9;
	193	1	0	0	0	0	3	0.98926	-141.3059	66	3	1.1	0.9;
	194	1	0	0	0	0	3	0.93805	-137.4003	345	3	1.1	0.9;
	195	1	0	0	0	0	3	0.94553	-138.8482	345	3	1.1	0.9;
	196	1	9.76620558	2.92930705	0	0	3	0.96441	-141.8434	115	3	1.1	0.9;
	197	1	41.7567203	13.5919943	0	0	3	0.97742	-140.4431	115	3	1.1	0.9;
	198	1	63.8953284	20.959496	0	0	3	1.01382	-137.331	115	3	1.1	0.9;
	199	1	34.5005236	11.8245173	0	0	3	0.94866	-142.988	115	3	1.1	0.9;
	200	1	26.5363926	11.7907649	0	0	3	0.94842	-143.1892	115	3	1.1	0.9;
	201	1	39.1263291	13.356018	0	50.03	1	1.01662	-143.1174	66	1	1.1	0.9;
	202	1	36.2301078	12.3904334	0	0	3	0.9647	-142.0436	66	3	1.1	0.9;
	203	1	40.9787152	13.6556521	0	0	3	0.98946	-139.0974	115	3	1.1	0.9;
	204	1	69.4184289	23.1326832	0	0	3	0.98546	-141.0069	66	3	1.1	0.9;
	205	1	0	-4.83775457	0	0	3	0.98987	-141.0736	66	3	1.1	0.9;
	206	1	11.7605614	1.95942475	0	0	3	1.00117	-139.0578	66	3	1.1	0.9;
	207	1	-20.7809589	-14.0560846	0	0	1	1.01944	-137.5819	66	1	1.1	0.9;
	208	1	6.81658473	1.94690018	0	0	3	0.9898	-141.3981	66	3	1.1	0.9;
	209	1	37.3597954	12.7768595	0	0	3	0.99573	-141.706	66	3	1.1	0.9;
	210	1	0	0	0	0	3	0.97572	-140.9468	115	3	1.1	0.9;
	211	1	90.9058132	6.62696124	0	0	3	0.97146	-140.1251	115	3	1.1	0.9;
	212	1	0	0	0	0	3	0.96789	-139.8282	138	3	1.1	0.9;
	213	1	0	0	0	0	3	1.00935	-131.2163	16.5	3	1.1	0.9;
	214	1	21.4533668	15.5979499	0	0	3	0.97553	-137.2281	138	3	1.1	0.9;
	215	1	44.5112597	24.6161309	0	0	3	0.95205	-140.2477	138	3	1.1	0.9;
	216	1	161.242455	96.1692293	0	0	3	0.91972	-143.9005	138	3	1.1	0.9;
	217	1	87.1905938	65.3749513	0	0	3	0.93081	-146.4712	138	3	1.1	0.9;
	218	1	114.258089	83.7076044	0	0	3	0.91833	-147.9054	138	3	1.1	0.9;
	219	1	0	0	0	0	3	0.93603	-142.9703	345	3	1.1	0.9;
	220	1	265.247466	93.0428247	0	0	3	0.96064	-152.727	138	3	1.1	0.9;
	221	1	161.325508	66.0205436	0	0	3	0.96168	-158.8351	138	3	1.1	0.9;
...
];

%% generator data
%	bus	Pg	Qg	Qmax	Qmin	Vg	mBase	status	Pmax	Pmin	Pc1	Pc2	Qc1min	Qc1max	Qc2min	Qc2max	ramp_agc	ramp_10	ramp_30	ramp_q	apf	mu_Pmax	mu_Pmin	mu_Qmax	mu_Qmin
mpc.gen = [
	10000	-4.805	10	10	-10	1.00619	25	1	-5	-5	0	0	0	0	0	0	0	0	0	0	0	0.0000	0.0000	0.0000	0.0000;
	10001	-4.797	20	20	-20	1.0147	25	1	-5	-5	0	0	0	0	0	0	0	0	0	0	0	0.0000	0.0000	0.0000	0.0000;
	10002	-9.79	20	20	-20	0.99468	27	1	-10	-10	0	0	0	0	0	0	0	0	0	0	0	0.0000	0.0000	0.0000	0.0000;
	10003	0.238	25	25	-25	0.94756	30	1	100	0	0	0	0	0	0	0	0	0	0	0	0	0.0000	0.0000	0.0000	0.0000;
	10004	0.36	13.412	35	12	0.93122	42	1	100	0	0	0	0	0	0	0	0	0	0	0	0	0.0000	0.0000	0.0000	0.0000;
	10005	382.698	189.671	240	-240	1.02416	835	1	475	0	0	0	0	0	0	0	0	0	0	0	0	0.0000	0.0000	0.0000	0.0000;
	10006	157.295	64.913	96	-11	1.04865	270	1	255	0	0	0	0	0	0	0	0	0	0	0	0	0.0000	0.0000	0.0000	0.0000;
	10007	293.524	63.702	153	-153	1.05155	410	1	390	0	0	0	0	0	0	0	0	0	0	0	0	0.0000	0.0000	0.0000	0.0000;
	10008	69.074	-2.095	56	-30	1.00021	125	1	168	0	0	0	0	0	0	0	0	0	0	0	0	0.0000	0.0000	0.0000	0.0000;
	10009	119.337	46.298	77	-24	0.98558	270	1	217	0	0	0	0	0	0	0	0	0	0	0	0	0.0000	0.0000	0.0000	0.0000;
	10010	1951.95	971.083	1500	-500	1.04321	2845	1	2030	0	0	0	0	0	0	0	0	0	0	0	0	0.0000	0.0000	0.0000	0.0000;
	10011	243.273	120	120	-60	0.99711	410	1	340	0	0	0	0	0	0	0	0	0	0	0	0	0.0000	0.0000	0.0000	0.0000;
	10012	1.824	199.302	200	-25	0.96633	240	1	100	0	0	0	0	0	0	0	0	0	0	0	0	0.0000	0.0000	0.0000	0.0000;
	10013	-915.649	350	350	-125	1.05251	1187	1	-925.03	-925.03	0	0	0	0	0	0	0	0	0	0	0	0.0000	0.0000	0.0000	0.0000;
	10014	284.317	66.861	75	-50	1.05094	410	1	381	0	0	0	0	0	0	0	0	0	0	0	0	0.0000	0.0000	0.0000	0.0000;
	10015	703.562	26.512	300	-100	1.04354	911	1	796	0	0	0	0	0	0	0	0	0	0	0	0	0.0000	0.0000	0.0000	0.0000;
	10016	85.012	29.446	35	-15	1.05284	125	1	184	0	0	0	0	0	0	0	0	0	0	0	0	0.0000	0.0000	0.0000	0.0000;
	10017	220.311	-49.29	100	-50	1.05274	410	1	317	0	0	0	0	0	0	0	0	0	0	0	0	0.0000	0.0000	0.0000	0.0000;
	10018	105.199	46.709	50	-25	1.0734	270	1	203	0	0	0	0	0	0	0	0	0	0	0	0	0.0000	0.0000	0.0000	0.0000;
	10019	378.689	-50	175	-50	1.05689	835	1	472	0	0	0	0	0	0	0	0	0	0	0	0	0.0000	0.0000	0.0000	0.0000;
	10020	219.281	-50	90	-50	1.04515	410	1	316	0	0	0	0	0	0	0	0	0	0	0	0	0.0000	0.0000	0.0000	0.0000;
	10021	0.195	-0.968	15	-10	0.97	25	1	100	0	0	0	0	0	0	0	0	0	0	0	0	0.0000	0.0000	0.0000	0.0000;
	10022	208.359	-25.597	90	-40	1.00549	410	1	305	0	0	0	0	0	0	0	0	0	0	0	0	0.0000	0.0000	0.0000	0.0000;
	10023	1.385	150	150	-50	0.97688	180	1	100	0	0	0	0	0	0	0	0	0	0	0	0	0.0000	0.0000	0.0000	0.0000;
	10024	231.324	37.856	90	-45	1.05215	410	1	328	0	0	0	0	0	0	0	0	0	0	0	0	0.0000	0.0000	0.0000	0.0000;
	10025	86.181	22.222	35	-15	1.00749	270	1	184	0	0	0	0	0	0	0	0	0	0	0	0	0.0000	0.0000	0.0000	0.0000;
	10026	203.298	39.38	80	-50	1.05209	410	1	300	0	0	0	0	0	0	0	0	0	0	0	0	0.0000	0.0000	0.0000	0.0000;
	10027	1212.106	301.895	400	-100	1.06493	1491	1	1300	0	0	0	0	0	0	0	0	0	0	0	0	0.0000	0.0000	0.0000	0.0000;
	10028	1212.312	374.412	400	-100	1.06493	1517	1	1300	0	0	0	0	0	0	0	0	0	0	0	0	0.0000	0.0000	0.0000	0.0000;
	10029	0	0	300	-300	0.95955	835	0	575	0	0	0	0	0	0	0	0	0	0	0	0	0.0000	0.0000	0.0000	0.0000;
	10030	1999.663	821.915	1000	-1000	1.043	2510	1	2073	0	0	0	0	0	0	0	0	0	0	0	0	0.0000	0.0000	0.0000	0.0000;
	10031	431.963	180.417	260	-260	1.01402	835	1	524	0	0	0	0	0	0	0	0	0	0	0	0	0.0000	0.0000	0.0000	0.0000;
	10032	276.868	85.9	150	-150	1.00944	512	1	372	0	0	0	0	0	0	0	0	0	0	0	0	0.0000	0.0000	0.0000	0.0000;
	10033	102.704	60	60	-60	0.98618	270	1	200	0	0	0	0	0	0	0	0	0	0	0	0	0.0000	0.0000	0.0000	0.0000;
	10034	458.597	320	320	-320	0.99678	835	1	550	0	0	0	0	0	0	0	0	0	0	0	0	0.0000	0.0000	0.0000	0.0000;
	10035	327.552	187.886	300	-300	1.04905	410	1	350	0	0	0	0	0	0	0	0	0	0	0	0	0.0000	0.0000	0.0000	0.0000;
	10036	307.422	300	300	-300	0.9962	512	1	403	0	0	0	0	0	0	0	0	0	0	0	0	0.0000	0.0000	0.0000	0.0000;
	10037	353.843	248.674	250	-250	1.03885	835	1	445	0	0	0	0	0	0	0	0	0	0	0	0	0.0000	0.0000	0.0000	0.0000;
	10038	304.972	370.206	500	-500	0.99698	512	1	400	0	0	0	0	0	0	0	0	0	0	0	0	0.0000	0.0000	0.0000	0.0000;
	10039	609.429	300	300	-300	1.01411	911	1	700	0	0	0	0	0	0	0	0	0	0	0	0	0.0000	0.0000	0.0000	0.0000;
	10040	253.828	200	200	-200	0.99505	410	1	350	0	0	0	0	0	0	0	0	0	0	0	0	0.0000	0.0000	0.0000	0.0000;
	10041	559.435	318.267	400	-400	1.00015	911	1	650	0	0	0	0	0	0	0	0	0	0	0	0	0.0000	0.0000	0.0000	0.0000;
	10042	0	0	600	-600	1.05	911	0	675.4	0	0	0	0	0	0	0	0	0	0	0	0	0.0000	0.0000	0.0000	0.0000;
	10043	173.92	100	100	40	0.9912	410	1	270	0	0	0	0	0	0	0	0	0	0	0	0	0.0000	0.0000	0.0000	0.0000;
	10044	86.564	58.882	80	40	1.0096	270	1	184	0	0	0	0	0	0	0	0	0	0	0	0	0.0000	0.0000	0.0000	0.0000;
	10045	473.904	174.23	210	-210	1.0505	835	1	567	0	0	0	0	0	0	0	0	0	0	0	0	0.0000	0.0000	0.0000	0.0000;
	10046	630.606	145.429	280	-280	1.05075	911	1	723	0	0	0	0	0	0	0	0	0	0	0	0	0.0000	0.0000	0.0000	0.0000;
	10047	1222.841	420	420	-420	1.02898	1537	1	1310	0	0	0	0	0	0	0	0	0	0	0	0	0.0000	0.0000	0.0000	0.0000;
	10048	237.397	76.441	100	-100	1.01418	410	1	334	0	0	0	0	0	0	0	0	0	0	0	0	0.0000	0.0000	0.0000	0.0000;
	10049	378.879	224	224	-224	1.05049	835	1	472	0	0	0	0	0	0	0	0	0	0	0	0	0.0000	0.0000	0.0000	0.0000;
	10050	336.987	350	350	0	1.04917	835	1	430	0	0	0	0	0	0	0	0	0	0	0	0	0.0000	0.0000	0.0000	0.0000;
	10051	188.378	14.922	120	0	1.05056	410	1	285	0	0	0	0	0	0	0	0	0	0	0	0	0.0000	0.0000	0.0000	0.0000;
	10052	416.879	120.54	224	-224	1.02886	835	1	510	0	0	0	0	0	0	0	0	0	0	0	0	0.0000	0.0000	0.0000	0.0000;
	10053	507.238	200	200	-200	1.04869	835	1	600	0	0	0	0	0	0	0	0	0	0	0	0	0.0000	0.0000	0.0000	0.0000;
	10054	37.983	42	42	0	1.01472	125	1	137	0	0	0	0	0	0	0	0	0	0	0	0	0.0000	0.0000	0.0000	0.0000;
	10055	466.611	0	0	0	1.05026	835	1	2399	0	0	0	0	0	0	0	0	0	0	0	0	0.0000	0.0000	0.0000	0.0000;
	10056	46.047	25	25	0	0.99699	125	1	145	0	0	0	0	0	0	0	0	0	0	0	0	0.0000	0.0000	0.0000	0.0000;
	10057	168.459	90	90	-90	1.0209	410	1	265	0	0	0	0	0	0	0	0	0	0	0	0	0.0000	0.0000	0.0000	0.0000;
	10058	407.022	150	150	-150	1.0143	835	1	500	0	0	0	0	0	0	0	0	0	0	0	0	0.0000	0.0000	0.0000	0.0000;
	10059	407.046	150	150	0	1.00126	835	1	500	0	0	0	0	0	0	0	0	0	0	0	0	0.0000	0.0000	0.0000	0.0000;
	10060	118.495	36.993	87	0	0.99247	270	1	216	0	0	0	0	0	0	0	0	0	0	0	0	0.0000	0.0000	0.0000	0.0000;
	10061	1305.279	388.708	600	-100	1.05054	1611	1	1392	0	0	0	0	0	0	0	0	0	0	0	0	0.0000	0.0000	0.0000	0.0000;
	10062	707.389	289.723	325	-125	1.05057	911	1	800	0	0	0	0	0	0	0	0	0	0	0	0	0.0000	0.0000	0.0000	0.0000;
	10063	560.305	138.217	300	-200	1.01452	911	1	653	0	0	0	0	0	0	0	0	0	0	0	0	0.0000	0.0000	0.0000	0.0000;
	10064	-3.998	2	2	-2	0.98012	25	1	-4.2	-4.2	0	0	0	0	0	0	0	0	0	0	0	0.0000	0.0000	0.0000	0.0000;
	10065	-34.762	17.35	17.35	-17.35	1.00012	125	1	-35.81	-35.81	0	0	0	0	0	0	0	0	0	0	0	0.0000	0.0000	0.0000	0.0000;
	10066	-25.43	12.83	12.83	-12.8	1.00011	125	1	-26.48	-26.48	0	0	0	0	0	0	0	0	0	0	0	0.0000	0.0000	0.0000	0.0000;
	10067	51.05	38	38	-38	1.00031	125	1	150	0	0	0	0	0	0	0	0	0	0	0	0	0.0000	0.0000	0.0000	0.0000;
	10068	8.203	6	6	-6	0.98508	25	1	108	0	0	0	0	0	0	0	0	0	0	0	0	0.0000	0.0000	0.0000	0.0000;
];

%% branch data
%	fbus	tbus	r	x	b	rateA	rateB	rateC	ratio	angle	status	angmin	angmax
mpc.branch = [
	1	5	0.001	0.00600346	0	756.99	984.08	984.09	0	0	1	-360	360;
	2	6	0.001	0.00900518	0	294.9	383.38	383.37	0	0	1	-360	360;
	2	8	0.006	0.0270156	0.05403	672.44	874.17	874.17	0	0	1	-360	360;
	3	7	0	0.00300173	0	543.03	705.94	705.94	0	0	1	-360	360;
	3	19	0.008	0.0690397	0.13908	400.15	520.2	520.2	0	0	1	-360	360;
	3	150	0.001	0.00700403	0	706.7	918.71	918.71	0	0	1	-360	360;
	4	16	0.002	0.0190109	1.12765	1200.04	1560.05	1560.05	0	0	1	-360	360;
	5	9	0.006	0.0290167	0.01801	193.71	251.82	251.82	0	0	1	-360	360;
	7	12	0.001	0.00900518	0.07004	362.29	470.98	470.98	0	0	1	-360	360;
	7	131	0.001	0.00700403	0.01401	614.65	799.04	799.05	0	0	1	-360	360;
	8	11	0.013	0.0595343	0.03302	262.38	341.09	341.09	0	0	1	-360	360;
	8	14	0.013	0.0420242	0.08105	559.22	726.99	726.99	0	0	1	-360	360;
	9	11	0.006	0.0270156	0.01301	162.09	210.72	210.72	0	0	1	-360	360;
	11	13	0.008	0.0340196	0.01801	480.36	624.46	624.47	0	0	1	-360	360;
	12	21	0.002	0.0150086	0.11807	794.77	1033.2	1033.2	0	0	1	-360	360;
	13	20	0.006	0.0340196	0.01601	303.42	394.44	394.45	0	0	1	-360	360;
	14	15	0.014	0.0420242	0.09706	696.53	905.49	905.49	0	0	1	-360	360;
	15	37	0.065	0.248143	0.12107	146.69	190.7	190.7	0	0	1	-360	360;
	15	89	0.099	0.248143	0.03502	85.59	111.26	111.27	0	0	1	-360	360;
	15	90	0.096	0.363209	0.04803	85.35	110.95	110.96	0	0	1	-360	360;
	16	42	0.002	0.0220127	1.28074	808.78	1051.41	1051.41	0	0	1	-360	360;
	19	21	0.002	0.0180104	0.03602	258.39	335.91	335.91	0	0	1	-360	360;
	19	87	0.013	0.0800461	0.15109	376.94	490.02	490.02	0	0	1	-360	360;
	20	22	0.016	0.033019	0.01501	241.98	314.57	314.57	0	0	1	-360	360;
	20	27	0.069	0.186107	0.09806	323.54	420.61	420.6	0	0	1	-360	360;
	21	24	0.004	0.0340196	0.28016	373.69	485.8	485.8	0	0	1	-360	360;
	22	23	0.052	0.111064	0.05003	388.72	505.33	505.34	0	0	1	-360	360;
	23	25	0.019	0.0390225	0.01801	231.91	301.49	301.48	0	0	1	-360	360;
	24	319	0.007	0.0680392	0.13408	208.98	271.67	271.67	0	0	1	-360	360;
	25	26	0.036	0.0710409	0.03402	143.6	186.68	186.68	0	0	1	-360	360;
	26	27	0.045	0.120069	0.06504	82.26	106.94	106.94	0	0	1	-360	360;
	26	320	0.043	0.130075	0.01401	30	39	39	0	0	1	-360	360;
	33	38	0.0025	0.0120069	0.01301	164.63	214.01	214.02	0	0	1	-360	360;
	33	40	0.006	0.0290167	0.02001	81.79	106.32	106.33	0	0	1	-360	360;
	33	41	0.007	0.0430248	0.02601	134.83	175.28	175.28	0	0	1	-360	360;
	34	42	0.001	0.00800461	0.04202	202.68	263.49	263.48	0	0	1	-360	360;
	35	72	0.012	0.0600346	0.008	133.07	173	172.99	0	0	1	-360	360;
	35	76	0.006	0.0140081	0.002	185.71	241.42	241.42	0	0	1	-360	360;
	35	77	0.01	0.0290167	0.003	77.27	100.46	100.45	0	0	1	-360	360;
	36	88	0.004	0.0270156	0.04302	357.03	464.15	464.14	0	0	1	-360	360;
	37	38	0.008	0.0470271	0.008	145.12	188.66	188.66	0	0	1	-360	360;
	37	40	0.022	0.0640369	0.007	73.35	95.35	95.35	0	0	1	-360	360;
	37	41	0.01	0.0360207	0.02001	200.13	260.17	260.17	0	0	1	-360	360;
	37	49	0.017	0.0810467	0.04803	359.55	467.41	467.41	0	0	1	-360	360;
	37	89	0.102	0.254146	0.03302	57.65	74.94	74.94	0	0	1	-360	360;
	37	90	0.047	0.127073	0.01601	96.75	125.77	125.78	0	0	1	-360	360;
	38	41	0.008	0.0370213	0.02001	209.19	271.95	271.95	0	0	1	-360	360;
	38	43	0.032	0.0870501	0.04002	141.56	184.03	184.03	0	0	1	-360	360;
	39	42	0.0006	0.00640369	0.40423	809.05	1051.77	1051.77	0	0	1	-360	360;
	40	48	0.026	0.154089	0.02201	73.02	94.92	94.93	0	0	1	-360	360;
	41	49	0.065	0.19111	0.02001	134.34	174.64	174.64	0	0	1	-360	360;
	41	51	0.031	0.0890513	0.03602	172.48	224.22	224.22	0	0	1	-360	360;
	42	46	0.002	0.0140081	0.80646	1176.14	1528.99	1528.98	0	0	1	-360	360;
	43	44	0.026	0.0720415	0.03502	131.89	171.46	171.46	0	0	1	-360	360;
	43	48	0.095	0.262151	0.03202	30	39	39	0	0	1	-360	360;
	43	53	0.013	0.0390225	0.01601	71.18	92.53	92.53	0	0	1	-360	360;
	44	47	0.027	0.0840484	0.03902	218.06	283.47	283.48	0	0	1	-360	360;
	44	54	0.028	0.0840484	0.03702	102.49	133.24	133.24	0	0	1	-360	360;
	45	60	0.007	0.0410236	0.31218	336.41	437.34	437.33	0	0	1	-360	360;
	45	74	0.009	0.0540311	0.41124	731.95	951.54	951.54	0	0	1	-360	360;
	46	81	0.005	0.0420242	0.6904	579.94	753.93	753.92	0	0	1	-360	360;
	47	73	0.052	0.145084	0.07304	105.31	136.9	136.9	0	0	1	-360	360;
	47	113	0.043	0.118068	0.01301	43.78	56.91	56.91	0	0	1	-360	360;
	48	107	0.025	0.0620357	0.007	72.96	94.85	94.85	0	0	1	-360	360;
	49	51	0.031	0.0940541	0.04302	174.26	226.54	226.54	0	0	1	-360	360;
	51	52	0.037	0.109063	0.04903	114.87	149.33	149.33	0	0	1	-360	360;
	52	55	0.027	0.0800461	0.03602	77.25	100.43	100.43	0	0	1	-360	360;
	53	54	0.025	0.0730421	0.03502	91.85	119.4	119.4	0	0	1	-360	360;
	54	55	0.035	0.103059	0.04703	119.98	155.97	155.97	0	0	1	-360	360;
	55	57	0.065	0.169097	0.08205	143.84	186.99	186.99	0	0	1	-360	360;
	57	58	0.046	0.0800461	0.03602	102.18	132.83	132.83	0	0	1	-360	360;
	57	63	0.159	0.537309	0.07104	64.54	83.9	83.9	0	0	1	-360	360;
	58	59	0.009	0.026015	0.005	99.4	129.22	129.22	0	0	1	-360	360;
	59	61	0.002	0.0130075	0.01501	372.08	483.71	483.7	0	0	1	-360	360;
	60	62	0.009	0.0650374	0.48528	348.49	453.04	453.04	0	0	1	-360	360;
	62	64	0.016	0.10506	0.20312	343.83	446.98	446.98	0	0	1	-360	360;
	62	144	0.001	0.00700403	0.01301	295.77	384.51	384.5	0	0	1	-360	360;
	63	526	0.0265	0.172099	0.02601	249.29	324.08	324.08	0	0	1	-360	360;
	69	79	0.051	0.15709	0.02301	82.14	106.78	106.78	0	0	1	-360	360;
	69	211	0.051	0.232134	0.02802	40.7	52.91	52.91	0	0	1	-360	360;
	70	71	0.032	0.100058	0.06204	168.96	219.64	219.65	0	0	1	-360	360;
	70	528	0.02	0.123471	0.02802	60.27	78.36	78.35	0	0	1	-360	360;
	71	72	0.036	0.131075	0.06804	285.83	371.58	371.58	0	0	1	-360	360;
	71	73	0.034	0.099057	0.04703	185.84	241.6	241.59	0	0	1	-360	360;
	72	77	0.018	0.0870501	0.01101	95.99	124.78	124.79	0	0	1	-360	360;
	72	531	0.0256	0.193111	0	30	39	39	0	0	1	-360	360;
	73	76	0.021	0.0570328	0.03002	190.07	247.09	247.09	0	0	1	-360	360;
	73	79	0.018	0.05203	0.01801	313.02	406.93	406.93	0	0	1	-360	360;
	74	88	0.004	0.0270156	0.05003	339.61	441.49	441.49	0	0	1	-360	360;
	74	562	0.0286	0.201416	0.37922	106.91	138.98	138.98	0	0	1	-360	360;
	76	77	0.016	0.0430248	0.004	122.13	158.77	158.77	0	0	1	-360	360;
	77	78	0.001	0.00600346	0.007	495.03	643.54	643.54	0	0	1	-360	360;
	77	80	0.014	0.0700403	0.03802	81.55	106.01	106.02	0	0	1	-360	360;
	77	552	0.0891	0.267754	0.02902	30	39	39	0	0	1	-360	360;
	77	609	0.0782	0.212823	0.02201	57.2	74.36	74.36	0	0	1	-360	360;
	78	79	0.006	0.0220127	0.01101	409.58	532.46	532.45	0	0	1	-360	360;
	78	84	0	0.0360207	0	694.72	903.14	903.14	0	0	1	-360	360;
	79	211	0.099	0.375216	0.05103	30	39	39	0	0	1	-360	360;
	80	211	0.022	0.107062	0.05803	148.68	193.28	193.28	0	0	1	-360	360;
	81	194	0.0035	0.033019	0.53031	357	464.1	464.1	0	0	1	-360	360;
	81	195	0.0035	0.033019	0.53031	458.48	596.02	596.02	0	0	1	-360	360;
	85	86	0.008	0.0640369	0.12807	150.49	195.64	195.64	0	0	1	-360	360;
	86	87	0.012	0.0930536	0.18311	195.01	253.51	253.51	0	0	1	-360	360;
	86	323	0.006	0.0480276	0.09205	51.8	67.34	67.34	0	0	1	-360	360;
	89	91	0.047	0.119069	0.01401	126.88	164.95	164.94	0	0	1	-360	360;
	90	92	0.032	0.1741	0.02401	108.02	140.43	140.43	0	0	1	-360	360;
	91	94	0.1	0.253146	0.03102	91.27	118.65	118.65	0	0	1	-360	360;
	91	97	0.022	0.0770444	0.03902	167.85	218.2	218.21	0	0	1	-360	360;
	92	103	0.019	0.144083	0.01701	139	180.7	180.7	0	0	1	-360	360;
	92	105	0.017	0.092053	0.01201	218.68	284.28	284.28	0	0	1	-360	360;
	94	97	0.278	0.427246	0.04302	58.28	75.77	75.76	0	0	1	-360	360;
	97	100	0.022	0.0530305	0.007	68.12	88.55	88.56	0	0	1	-360	360;
	97	102	0.038	0.092053	0.01201	73.49	95.54	95.54	0	0	1	-360	360;
	97	103	0.048	0.12207	0.01501	74.42	96.75	96.75	0	0	1	-360	360;
	98	100	0.024	0.0640369	0.007	62.32	81.01	81.02	0	0	1	-360	360;
	98	102	0.034	0.12107	0.01501	30	39	39	0	0	1	-360	360;
	99	107	0.053	0.135078	0.01701	82.88	107.74	107.74	0	0	1	-360	360;
	99	108	0.002	0.0040023	0.002	118.84	154.49	154.49	0	0	1	-360	360;
	99	109	0.045	0.354204	0.04403	55.01	71.52	71.51	0	0	1	-360	360;
	99	110	0.05	0.1741	0.02201	77.58	100.86	100.85	0	0	1	-360	360;
	100	102	0.016	0.0380219	0.004	70.35	91.46	91.46	0	0	1	-360	360;
	102	104	0.043	0.0640369	0.02702	91.09	118.41	118.42	0	0	1	-360	360;
	103	105	0.019	0.0620357	0.008	160.84	209.09	209.09	0	0	1	-360	360;
	104	108	0.076	0.130075	0.04403	67.92	88.29	88.3	0	0	1	-360	360;
	104	322	0.044	0.124071	0.01501	30	39	39	0	0	1	-360	360;
	105	107	0.012	0.0880507	0.01101	131.08	170.4	170.4	0	0	1	-360	360;
	105	110	0.157	0.40023	0.04703	76.81	99.86	99.85	0	0	1	-360	360;
	108	324	0.074	0.20812	0.02601	48.88	63.54	63.54	0	0	1	-360	360;
	109	110	0.07	0.184106	0.02101	30	39	39	0	0	1	-360	360;
	109	113	0.1	0.274158	0.03102	30	39	39	0	0	1	-360	360;
	109	114	0.109	0.393226	0.03602	30	39	39	0	0	1	-360	360;
	110	112	0.142	0.404233	0.05003	30	39	39	0	0	1	-360	360;
	112	114	0.017	0.0420242	0.006	30	39	39	0	0	1	-360	360;
	115	122	0.0036	0.0199115	0.004	637.85	829.2	829.2	0	0	1	-360	360;
	116	120	0.002	0.10496	0.001	542.52	705.27	705.28	0	0	1	-360	360;
	117	118	0.0001	0.00180104	0.01701	1895.76	2464.49	2464.49	0	0	1	-360	360;
	118	119	0	0.0271156	0	1894.4	2462.73	2462.72	0	0	1	-360	360;
	118	121	0.0022	0.291668	0	96.42	125.35	125.35	0	0	1	-360	360;
	118	1201	0	0.616655	0	76.05	98.86	98.87	0	0	1	-360	360;
	119	120	0	0.0339195	0	320.7	416.91	416.91	0	0	1	-360	360;
	119	121	0	0.0582335	0	1255.96	1632.75	1632.75	0	0	1	-360	360;
	120	1201	0	-0.0696599	0	73.75	95.88	95.88	0	0	1	-360	360;
	122	123	0.0808	0.234535	0.02902	121.3	157.69	157.69	0	0	1	-360	360;
	122	125	0.0965	0.367111	0.05403	121.65	158.15	158.15	0	0	1	-360	360;
	123	124	0.036	0.107662	0.11707	321.54	418	418	0	0	1	-360	360;
	123	125	0.0476	0.141481	0.14909	221.65	288.14	288.14	0	0	1	-360	360;
	125	126	0.0006	0.0197113	0	696.33	905.23	905.23	0	0	1	-360	360;
	127	128	0.0059	0.0577332	0.09505	195.24	253.82	253.81	0	0	1	-360	360;
	127	134	0.0049	0.0336194	0.20812	221.17	287.52	287.52	0	0	1	-360	360;
	127	168	0.0059	0.0577332	0.09505	233.97	304.16	304.16	0	0	1	-360	360;
	128	130	0.0078	0.0773445	0.12607	464.96	604.45	604.45	0	0	1	-360	360;
	128	133	0.0026	0.0193111	0.03002	359.5	467.35	467.35	0	0	1	-360	360;
	129	130	0.0076	0.0752433	0.12207	378.09	491.51	491.52	0	0	1	-360	360;
	129	133	0.0021	0.0186107	0.03002	515.04	669.55	669.55	0	0	1	-360	360;
	130	132	0.0016	0.0164094	0.02601	358.15	465.59	465.6	0	0	1	-360	360;
	130	151	0.0017	0.0165095	0.02601	262.02	340.62	340.63	0	0	1	-360	360;
	130	167	0.0079	0.0793457	0.12707	512.99	666.89	666.89	0	0	1	-360	360;
	130	168	0.0078	0.0784452	0.12507	412.96	536.85	536.85	0	0	1	-360	360;
	133	137	0.0017	0.0117067	0.28917	691.78	899.32	899.31	0	0	1	-360	360;
	133	168	0.0026	0.0193111	0.03002	313.8	407.94	407.94	0	0	1	-360	360;
	133	169	0.0021	0.0186107	0.03002	184.72	240.13	240.14	0	0	1	-360	360;
	134	135	0.0043	0.0293169	0.1801	228.68	297.28	297.28	0	0	1	-360	360;
	134	184	0.0039	0.0381219	0.25815	165.71	215.43	215.42	0	0	1	-360	360;
	135	136	0.0091	0.0623359	0.38522	278.05	361.47	361.46	0	0	1	-360	360;
	136	137	0.0125	0.0890513	0.54031	369.45	480.29	480.29	0	0	1	-360	360;
	136	152	0.0056	0.0390225	0.95355	672.87	874.73	874.73	0	0	1	-360	360;
	137	140	0.0015	0.0114066	0.28416	519.3	675.08	675.09	0	0	1	-360	360;
	137	181	0.0005	0.00340196	0.02101	1044.25	1357.53	1357.53	0	0	1	-360	360;
	137	186	0.0007	0.0151087	0.12607	1651.31	2146.71	2146.7	0	0	1	-360	360;
	137	188	0.0005	0.00340196	0.02101	737.11	958.25	958.24	0	0	1	-360	360;
	138	181	0.0004	0.0202116	0	1489.09	1935.82	1935.82	0	0	1	-360	360;
	138	188	0.0004	0.0202116	0	1766.78	2296.81	2296.81	0	0	1	-360	360;
	139	172	0.0562	0.22493	0.08105	139.29	181.08	181.08	0	0	1	-360	360;
	140	141	0.012	0.0836482	0.12307	139.41	181.23	181.23	0	0	1	-360	360;
	140	142	0.0152	0.113265	0.68439	185.06	240.58	240.58	0	0	1	-360	360;
	140	145	0.0468	0.337094	0.5193	90.55	117.71	117.72	0	0	1	-360	360;
	140	146	0.043	0.303275	0.46327	106.73	138.75	138.75	0	0	1	-360	360;
	140	147	0.0489	0.349401	0.53831	313.25	407.23	407.23	0	0	1	-360	360;
	140	182	0.0013	0.00890513	0.11907	260.68	338.88	338.88	0	0	1	-360	360;
	141	146	0.0291	0.226831	0.3422	89.84	116.79	116.79	0	0	1	-360	360;
	142	143	0.006	0.0570328	0.76744	381.09	495.41	495.42	0	0	1	-360	360;
	143	145	0.0075	0.0773445	0.11907	187.1	243.23	243.23	0	0	1	-360	360;
	143	149	0.0127	0.0909524	0.13508	133.01	172.91	172.91	0	0	1	-360	360;
	145	146	0.0085	0.0588339	0.08705	239.45	311.28	311.29	0	0	1	-360	360;
	145	149	0.0218	0.151187	0.22313	156.93	204.01	204.01	0	0	1	-360	360;
	146	147	0.0073	0.050429	0.07404	269.74	350.67	350.66	0	0	1	-360	360;
	148	178	0.0523	0.152688	0.07404	169.08	219.8	219.8	0	0	1	-360	360;
	148	179	0.1371	0.392126	0.07604	96.94	126.03	126.02	0	0	1	-360	360;
	152	153	0.0137	0.0957551	0.14108	301.09	391.42	391.42	0	0	1	-360	360;
	153	161	0.0055	0.0288166	0.19011	233.97	304.16	304.16	0	0	1	-360	360;
	154	156	0.1746	0.316282	0.04002	116.33	151.23	151.23	0	0	1	-360	360;
	154	183	0.0804	0.305576	0.04503	189.53	246.39	246.39	0	0	1	-360	360;
	155	161	0.011	0.0568327	0.38822	275.91	358.68	358.68	0	0	1	-360	360;
	157	159	0.0008	0.00980564	0.06904	1236.3	1607.19	1607.19	0	0	1	-360	360;
	158	159	0.0029	0.0285164	0.19011	478.38	621.89	621.89	0	0	1	-360	360;
	158	160	0.0066	0.0448258	0.27716	190.95	248.24	248.24	0	0	1	-360	360;
	162	164	0.0024	0.0326188	0.23614	813.08	1057.01	1057	0	0	1	-360	360;
	162	165	0.0018	0.0245141	1.66296	880.76	1144.99	1144.99	0	0	1	-360	360;
	163	164	0.0044	0.0514296	3.59907	631.95	821.54	821.54	0	0	1	-360	360;
	165	166	0.0002	0.0123071	0	869.61	1130.49	1130.49	0	0	1	-360	360;
...
];

%% bus names
mpc.bus_name = {
	'1           ';
	'2           ';
	'3           ';
	'4           ';
	'5           ';
	'6           ';
	'7           ';
	'8           ';
	'9           ';
	'10          ';
	'11          ';
	'12          ';
	'13          ';
	'14          ';
	'15          ';
	'16          ';
	'17          ';
	'19          ';
	'20          ';
	'21          ';
	'22          ';
	'23          ';
	'24          ';
	'25          ';
	'26          ';
	'27          ';
	'33          ';
	'34          ';
	'35          ';
	'36          ';
	'37          ';
	'38          ';
	'39          ';
	'40          ';
	'41          ';
	'42          ';
	'43          ';
	'44          ';
	'45          ';
	'46          ';
	'47          ';
	'48          ';
	'49          ';
	'51          ';
	'52          ';
	'53          ';
	'54          ';
	'55          ';
	'57          ';
	'58          ';
	'59          ';
	'60          ';
	'61          ';
	'62          ';
	'63          ';
	'64          ';
	'69          ';
	'70          ';
	'71          ';
	'72          ';
	'73          ';
	'74          ';
	'76          ';
	'77          ';
	'78          ';
	'79          ';
	'80          ';
	'81          ';
	'84          ';
	'85          ';
	'86          ';
	'87          ';
	'88          ';
	'89          ';
	'90          ';
	'91          ';
	'92          ';
	'94          ';
	'97          ';
	'98          ';
	'99          ';
	'100         ';
	'102         ';
	'103         ';
	'104         ';
	'105         ';
	'107         ';
	'108         ';
	'109         ';
	'110         ';
	'112         ';
	'113         ';
	'114         ';
	'115         ';
	'116         ';
	'117         ';
	'118         ';
	'119         ';
	'120         ';
	'121         ';
	'122         ';
	'123         ';
	'124         ';
	'125         ';
	'126         ';
	'127         ';
	'128         ';
	'129         ';
	'130         ';
	'131         ';
	'132         ';
	'133         ';
	'134         ';
	'135         ';
	'136         ';
	'137         ';
	'138         ';
	'139         ';
	'140         ';
	'141         ';
	'142         ';
	'143         ';
	'144         ';
	'145         ';
	'146         ';
	'147         ';
	'148         ';
	'149         ';
	'150         ';
	'151         ';
	'152         ';
	'153         ';
	'154         ';
	'155         ';
	'156         ';
	'157         ';
	'158         ';
	'159         ';
	'160         ';
	'161         ';
	'162         ';
	'163         ';
	'164         ';
	'165         ';
	'166         ';
	'167         ';
	'168         ';
	'169         ';
	'170         ';
	'171         ';
	'172         ';
	'173         ';
	'174         ';
	'175         ';
	'176         ';
	'177         ';
	'178         ';
	'179         ';
	'180         ';
	'181         ';
	'182         ';
	'183         ';
	'184         ';
	'185         ';
	'186         ';
	'187         ';
	'188         ';
	'189         ';
	'190         ';
	'191         ';
	'192         ';
	'192         ';
	'194         ';
	'195         ';
	'196         ';
	'197         ';
	'198         ';
	'199         ';
	'200         ';
	'201         ';
	'202         ';
	'203         ';
	'204         ';
	'205         ';
	'206         ';
	'207         ';
	'208         ';
	'209         ';
	'210         ';
	'211         ';
	'212         ';
	'213         ';
	'214         ';
	'215         ';
	'216         ';
	'217         ';
	'218         ';
	'219         ';
	'220         ';
	'221         ';
...
};
